
     RDKit          3D

170193  0  0  0  0  0  0  0  0999 V2000
    0.5295    4.2138   -2.4107 C   0  0  0  0  0  0  0  0  0  0  0  0
    0.6090    3.1777   -1.4085 N   0  0  0  0  0  0  0  0  0  0  0  0
    1.7438    2.4127   -1.0816 C   0  0  0  0  0  0  0  0  0  0  0  0
    1.4084    1.6053   -0.0719 C   0  0  0  0  0  0  0  0  0  0  0  0
    1.9576    0.5775    0.8242 C   0  0  0  0  0  0  0  0  0  0  0  0
    3.1150    0.2050    0.8426 O   0  0  0  0  0  0  0  0  0  0  0  0
    0.8475    0.2103    1.6003 N   0  0  0  0  0  0  0  0  0  0  0  0
    0.9036   -0.7892    2.6363 C   0  0  0  0  0  0  0  0  0  0  0  0
   -0.2853    0.9522    1.2445 C   0  0  0  0  0  0  0  0  0  0  0  0
    0.0286    1.7968    0.2630 C   0  0  0  0  0  0  0  0  0  0  0  0
   -0.4997    2.8664   -0.5958 C   0  0  0  0  0  0  0  0  0  0  0  0
   -1.6018    3.3700   -0.5682 O   0  0  0  0  0  0  0  0  0  0  0  0
   -1.6427    0.8992    1.8418 C   0  0  0  0  0  0  0  0  0  0  0  0
   -2.7022    1.1378    1.1248 N   0  0  0  0  0  0  0  0  0  0  0  0
   -3.8885    1.1748    1.8043 C   0  0  0  0  0  3  0  0  0  0  0  0
   -3.9477    0.9212    3.1429 N   0  0  0  0  0  0  0  0  0  0  0  0
   -2.7828    0.6333    3.7747 C   0  0  0  0  0  0  0  0  0  0  0  0
   -1.6320    0.5929    3.1930 N   0  0  0  0  0  0  0  0  0  0  0  0
   -5.0931    1.7186    1.0688 C   0  0  0  0  0  0  0  0  0  0  0  0
   -6.2849    0.7957    1.1078 C   0  0  0  0  0  0  0  0  0  0  0  0
   -6.9834    0.4144    0.0261 C   0  0  0  0  0  0  0  0  0  0  0  0
   -8.2060   -0.4738    0.1130 C   0  0  2  0  0  0  0  0  0  0  0  0
   -8.2520   -1.4845   -1.0363 C   0  0  0  0  0  0  0  0  0  0  0  0
   -9.5169    0.3418    0.3136 C   0  0  0  0  0  0  0  0  0  0  0  0
  -10.3511    0.6960   -0.9040 C   0  0  0  0  0  3  0  0  0  0  0  0
  -11.5828   -0.1365   -1.2251 C   0  0  0  0  0  0  0  0  0  0  0  0
  -12.5204   -0.7642   -0.3809 C   0  0  0  0  0  0  0  0  0  0  0  0
  -13.5060   -1.6007   -0.9311 C   0  0  0  0  0  0  0  0  0  0  0  0
  -13.6502   -1.7718   -2.3272 C   0  0  0  0  0  0  0  0  0  0  0  0
  -12.8094   -1.0393   -3.1724 C   0  0  0  0  0  0  0  0  0  0  0  0
  -12.8145   -0.9222   -4.9168 S   0  0  0  0  0  0  0  0  0  0  0  0
  -11.5670    0.2455   -4.9309 C   0  0  0  0  0  0  0  0  0  0  0  0
  -11.1363    0.4354   -3.6444 C   0  0  0  0  0  0  0  0  0  0  0  0
  -10.1396    1.3874   -3.3417 C   0  0  0  0  0  3  0  0  0  0  0  0
   -9.6346    2.1809   -4.4489 C   0  0  0  0  0  3  0  0  0  0  0  0
   -8.7057    3.2421   -4.1276 C   0  0  0  0  0  0  0  0  0  0  0  0
   -8.3613    3.4453   -2.8357 C   0  0  0  0  0  0  0  0  0  0  0  0
   -8.8965    2.6193   -1.7323 C   0  0  0  0  0  0  0  0  0  0  0  0
   -9.7617    1.5990   -1.9419 C   0  0  0  0  0  0  0  0  0  0  0  0
   -8.1890    4.0725   -5.2482 C   0  0  0  0  0  0  0  0  0  0  0  0
   -7.4361    5.0250   -5.0740 O   0  0  0  0  0  0  0  0  0  0  0  0
   -8.6227    3.7144   -6.5133 N   0  0  0  0  0  0  0  0  0  0  0  0
   -9.5687    2.7772   -6.9006 C   0  0  0  0  0  0  0  0  0  0  0  0
   -9.9479    2.6878   -8.0613 O   0  0  0  0  0  0  0  0  0  0  0  0
  -10.1179    1.9235   -5.8102 C   0  0  0  0  0  0  0  0  0  0  0  0
  -11.0516    0.9682   -6.0585 C   0  0  0  0  0  0  0  0  0  0  0  0
  -11.8066   -0.2537   -2.6243 C   0  0  0  0  0  0  0  0  0  0  0  0
  -14.4752   -2.3062   -0.0471 C   0  0  0  0  0  0  0  0  0  0  0  0
  -15.2930   -3.0656   -0.5701 O   0  0  0  0  0  0  0  0  0  0  0  0
  -14.4192   -2.0572    1.3322 N   0  0  0  0  0  0  0  0  0  0  0  0
  -15.4523   -2.5646    2.1176 C   0  0  0  0  0  0  0  0  0  0  0  0
  -15.6273   -3.8679    2.4175 C   0  0  0  0  0  0  0  0  0  0  0  0
  -16.6898   -4.3524    3.1693 O   0  0  0  0  0  0  0  0  0  0  0  0
  -17.6314   -3.4708    3.6332 C   0  0  0  0  0  0  0  0  0  0  0  0
  -17.5718   -2.1031    3.3957 C   0  0  0  0  0  0  0  0  0  0  0  0
  -18.5664   -1.2503    3.8898 C   0  0  0  0  0  0  0  0  0  0  0  0
  -19.6251   -1.7821    4.6253 C   0  0  0  0  0  0  0  0  0  0  0  0
  -19.6893   -3.1551    4.8656 C   0  0  0  0  0  0  0  0  0  0  0  0
  -18.6924   -4.0004    4.3689 C   0  0  0  0  0  0  0  0  0  0  0  0
  -16.4647   -1.5739    2.5878 C   0  0  0  0  0  0  0  0  0  0  0  0
  -16.4096   -0.3867    2.2857 O   0  0  0  0  0  0  0  0  0  0  0  0
  -14.6775   -4.9598    2.0229 C   0  0  0  0  0  0  0  0  0  0  0  0
  -13.5433   -1.1683    1.9417 C   0  0  0  0  0  0  0  0  0  0  0  0
  -13.4663   -0.9437    3.1472 O   0  0  0  0  0  0  0  0  0  0  0  0
  -12.5988   -0.4959    1.0440 C   0  0  0  0  0  3  0  0  0  0  0  0
    3.0486    2.4982   -1.7238 C   0  0  0  0  0  3  0  0  0  0  0  0
    3.0915    3.1567   -2.9206 N   0  0  0  0  0  0  0  0  0  0  0  0
    4.2499    3.1650   -3.5052 C   0  0  0  0  0  0  0  0  0  0  0  0
    5.4026    2.5824   -3.0425 N   0  0  0  0  0  0  0  0  0  0  0  0
    5.3390    1.9799   -1.8884 C   0  0  0  0  0  0  0  0  0  0  0  0
    4.1680    1.9290   -1.1778 N   0  0  0  0  0  0  0  0  0  0  0  0
    6.5881    1.3491   -1.3620 C   0  0  0  0  0  0  0  0  0  0  0  0
    7.5985    1.0085   -2.2697 C   0  0  0  0  0  0  0  0  0  0  0  0
    8.8046    0.4752   -1.8185 C   0  0  0  0  0  0  0  0  0  0  0  0
    9.0305    0.2762   -0.4478 C   0  0  0  0  0  0  0  0  0  0  0  0
   10.3428   -0.2104    0.0054 C   0  0  0  0  0  0  0  0  0  0  0  0
   10.6795   -1.6019    0.1668 C   0  0  0  0  0  0  0  0  0  0  0  0
    9.7852   -2.8171   -0.0056 C   0  0  0  0  0  0  0  0  0  0  0  0
   10.2850   -4.1515    0.1701 C   0  0  0  0  0  0  0  0  0  0  0  0
   11.6428   -4.2414    0.5099 C   0  0  0  0  0  0  0  0  0  0  0  0
   12.2814   -5.4533    0.7097 C   0  0  0  0  0  0  0  0  0  0  0  0
   13.9394   -5.1805    1.1036 S   0  0  0  0  0  0  0  0  0  0  0  0
   13.7870   -3.4631    1.0030 C   0  0  0  0  0  0  0  0  0  0  0  0
   14.7527   -2.4653    1.1980 C   0  0  0  0  0  0  0  0  0  0  0  0
   14.3578   -1.1205    1.0470 C   0  0  0  0  0  0  0  0  0  0  0  0
   15.3562   -0.0454    1.2670 C   0  0  0  0  0  0  0  0  0  0  0  0
   16.4834   -0.3707    1.6369 O   0  0  0  0  0  0  0  0  0  0  0  0
   14.9284    1.2724    1.0610 N   0  0  0  0  0  0  0  0  0  0  0  0
   15.8115    2.3233    1.3237 C   0  0  0  0  0  0  0  0  0  0  0  0
   17.0266    2.4950    0.7595 C   0  0  0  0  0  0  0  0  0  0  0  0
   17.8747    3.5569    1.0529 O   0  0  0  0  0  0  0  0  0  0  0  0
   17.4105    4.5766    1.8374 C   0  0  0  0  0  0  0  0  0  0  0  0
   16.1844    4.5296    2.4860 C   0  0  0  0  0  0  0  0  0  0  0  0
   15.7573    5.6003    3.2767 C   0  0  0  0  0  0  0  0  0  0  0  0
   16.5714    6.7272    3.4098 C   0  0  0  0  0  0  0  0  0  0  0  0
   17.8077    6.7728    2.7636 C   0  0  0  0  0  0  0  0  0  0  0  0
   18.2299    5.6965    1.9800 C   0  0  0  0  0  0  0  0  0  0  0  0
   15.3635    3.3225    2.3411 C   0  0  0  0  0  0  0  0  0  0  0  0
   14.3861    3.1333    3.0605 O   0  0  0  0  0  0  0  0  0  0  0  0
   17.6040    1.6234   -0.3216 C   0  0  0  0  0  0  0  0  0  0  0  0
   13.6311    1.6225    0.6544 C   0  0  0  0  0  0  0  0  0  0  0  0
   13.2944    2.7525    0.3023 O   0  0  0  0  0  0  0  0  0  0  0  0
   12.6418    0.5315    0.5439 C   0  0  0  0  0  0  0  0  0  0  0  0
   13.0421   -0.7784    0.7144 C   0  0  0  0  0  0  0  0  0  0  0  0
   12.0655   -1.7868    0.5244 C   0  0  0  0  0  0  0  0  0  0  0  0
   12.4869   -3.1214    0.6789 C   0  0  0  0  0  0  0  0  0  0  0  0
   11.3148    0.8119    0.2034 C   0  0  0  0  0  0  0  0  0  0  0  0
   11.5705   -6.6572    0.5792 C   0  0  0  0  0  0  0  0  0  0  0  0
   10.2056   -6.5817    0.2400 C   0  0  0  0  0  0  0  0  0  0  0  0
    9.4149   -7.8256    0.0929 C   0  0  0  0  0  0  0  0  0  0  0  0
    9.9190   -8.9273    0.2766 O   0  0  0  0  0  0  0  0  0  0  0  0
    8.0919   -7.6711   -0.2557 N   0  0  0  0  0  0  0  0  0  0  0  0
    7.4207   -6.4883   -0.4717 C   0  0  0  0  0  0  0  0  0  0  0  0
    6.2367   -6.4578   -0.7887 O   0  0  0  0  0  0  0  0  0  0  0  0
    8.2145   -5.2525   -0.3082 C   0  0  0  0  0  0  0  0  0  0  0  0
    9.5573   -5.3540    0.0330 C   0  0  0  0  0  0  0  0  0  0  0  0
    7.6394   -3.9962   -0.4945 C   0  0  0  0  0  0  0  0  0  0  0  0
    8.4077   -2.8224   -0.3448 C   0  0  0  0  0  0  0  0  0  0  0  0
    8.0166    0.6286    0.4598 C   0  0  0  0  0  0  0  0  0  0  0  0
    6.7957    1.1501    0.0071 C   0  0  0  0  0  0  0  0  0  0  0  0
    1.3055    4.9629   -2.2320 H   0  0  0  0  0  0  0  0  0  0  0  0
   -0.4418    4.7158   -2.3652 H   0  0  0  0  0  0  0  0  0  0  0  0
    0.6338    3.7704   -3.4041 H   0  0  0  0  0  0  0  0  0  0  0  0
    0.8634   -0.2998    3.6130 H   0  0  0  0  0  0  0  0  0  0  0  0
    1.8417   -1.3484    2.5691 H   0  0  0  0  0  0  0  0  0  0  0  0
    0.0698   -1.4875    2.5236 H   0  0  0  0  0  0  0  0  0  0  0  0
   -4.8137    1.0751    3.6393 H   0  0  0  0  0  0  0  0  0  0  0  0
   -2.8937    0.4255    4.8520 H   0  0  0  0  0  0  0  0  0  0  0  0
   -5.3823    2.6699    1.5316 H   0  0  0  0  0  0  0  0  0  0  0  0
   -4.8231    1.9453    0.0303 H   0  0  0  0  0  0  0  0  0  0  0  0
   -6.5978    0.4447    2.0893 H   0  0  0  0  0  0  0  0  0  0  0  0
   -6.6887    0.7696   -0.9598 H   0  0  0  0  0  0  0  0  0  0  0  0
   -8.0856   -1.0757    1.0275 H   0  0  0  0  0  0  0  0  0  0  0  0
   -7.3505   -2.1092   -1.0378 H   0  0  0  0  0  0  0  0  0  0  0  0
   -8.3086   -0.9977   -2.0145 H   0  0  0  0  0  0  0  0  0  0  0  0
   -9.1140   -2.1514   -0.9309 H   0  0  0  0  0  0  0  0  0  0  0  0
  -10.1081   -0.2690    0.9984 H   0  0  0  0  0  0  0  0  0  0  0  0
   -9.3153    1.2606    0.8806 H   0  0  0  0  0  0  0  0  0  0  0  0
  -14.4354   -2.4005   -2.7405 H   0  0  0  0  0  0  0  0  0  0  0  0
   -7.6678    4.2379   -2.5626 H   0  0  0  0  0  0  0  0  0  0  0  0
   -8.5593    2.8842   -0.7348 H   0  0  0  0  0  0  0  0  0  0  0  0
   -8.2831    4.3054   -7.2597 H   0  0  0  0  0  0  0  0  0  0  0  0
  -11.4299    0.7737   -7.0588 H   0  0  0  0  0  0  0  0  0  0  0  0
  -18.5194   -0.1796    3.6963 H   0  0  0  0  0  0  0  0  0  0  0  0
  -20.4026   -1.1249    5.0068 H   0  0  0  0  0  0  0  0  0  0  0  0
  -20.5184   -3.5691    5.4322 H   0  0  0  0  0  0  0  0  0  0  0  0
  -18.7474   -5.0699    4.5529 H   0  0  0  0  0  0  0  0  0  0  0  0
  -13.7511   -4.5892    1.5683 H   0  0  0  0  0  0  0  0  0  0  0  0
  -15.1557   -5.6458    1.3129 H   0  0  0  0  0  0  0  0  0  0  0  0
  -14.3842   -5.5360    2.9122 H   0  0  0  0  0  0  0  0  0  0  0  0
  -12.1119    0.3745    1.4659 H   0  0  0  0  0  0  0  0  0  0  0  0
    4.3331    3.6876   -4.4743 H   0  0  0  0  0  0  0  0  0  0  0  0
    4.0574    1.2992   -0.3875 H   0  0  0  0  0  0  0  0  0  0  0  0
    7.4582    1.1698   -3.3361 H   0  0  0  0  0  0  0  0  0  0  0  0
    9.5797    0.2318   -2.5434 H   0  0  0  0  0  0  0  0  0  0  0  0
   15.7751   -2.7276    1.4592 H   0  0  0  0  0  0  0  0  0  0  0  0
   14.7964    5.5605    3.7852 H   0  0  0  0  0  0  0  0  0  0  0  0
   16.2432    7.5655    4.0211 H   0  0  0  0  0  0  0  0  0  0  0  0
   18.4445    7.6487    2.8729 H   0  0  0  0  0  0  0  0  0  0  0  0
   19.1945    5.7351    1.4825 H   0  0  0  0  0  0  0  0  0  0  0  0
   18.0117    2.2466   -1.1257 H   0  0  0  0  0  0  0  0  0  0  0  0
   18.4186    1.0123    0.0816 H   0  0  0  0  0  0  0  0  0  0  0  0
   16.8636    0.9641   -0.7816 H   0  0  0  0  0  0  0  0  0  0  0  0
   11.0217    1.8550    0.0564 H   0  0  0  0  0  0  0  0  0  0  0  0
   12.0592   -7.6158    0.7337 H   0  0  0  0  0  0  0  0  0  0  0  0
    7.5544   -8.5204   -0.3624 H   0  0  0  0  0  0  0  0  0  0  0  0
    6.5852   -3.9139   -0.7599 H   0  0  0  0  0  0  0  0  0  0  0  0
    7.8693   -1.8974   -0.5109 H   0  0  0  0  0  0  0  0  0  0  0  0
    8.1776    0.5057    1.5299 H   0  0  0  0  0  0  0  0  0  0  0  0
    6.0409    1.4291    0.7374 H   0  0  0  0  0  0  0  0  0  0  0  0
  1  2  1  0
  2  3  1  0
  3  4  2  0
  4  5  1  0
  5  6  2  0
  5  7  1  0
  7  8  1  0
  7  9  1  0
  9 10  2  0
 10 11  1  0
 11 12  2  0
  9 13  1  0
 13 14  2  0
 14 15  1  0
 15 16  1  0
 16 17  1  0
 17 18  2  0
 15 19  1  0
 19 20  1  0
 20 21  2  0
 21 22  1  0
 22 23  1  0
 22 24  1  0
 24 25  1  0
 25 26  1  0
 26 27  2  0
 27 28  1  0
 28 29  2  0
 29 30  1  0
 30 31  1  0
 31 32  1  0
 32 33  2  0
 33 34  1  0
 34 35  1  0
 35 36  1  0
 36 37  2  0
 37 38  1  0
 38 39  2  0
 36 40  1  0
 40 41  2  0
 40 42  1  0
 42 43  1  0
 43 44  2  0
 43 45  1  0
 45 46  2  0
 33 47  1  0
 28 48  1  0
 48 49  2  0
 48 50  1  0
 50 51  1  0
 51 52  2  0
 52 53  1  0
 53 54  1  0
 54 55  2  0
 55 56  1  0
 56 57  2  0
 57 58  1  0
 58 59  2  0
 55 60  1  0
 60 61  2  0
 52 62  1  0
 50 63  1  0
 63 64  2  0
 63 65  1  0
  3 66  1  0
 66 67  1  0
 67 68  2  0
 68 69  1  0
 69 70  2  0
 70 71  1  0
 70 72  1  0
 72 73  2  0
 73 74  1  0
 74 75  2  0
 75 76  1  0
 76 77  2  0
 77 78  1  0
 78 79  2  0
 79 80  1  0
 80 81  2  0
 81 82  1  0
 82 83  1  0
 83 84  2  0
 84 85  1  0
 85 86  1  0
 86 87  2  0
 86 88  1  0
 88 89  1  0
 89 90  2  0
 90 91  1  0
 91 92  1  0
 92 93  2  0
 93 94  1  0
 94 95  2  0
 95 96  1  0
 96 97  2  0
 93 98  1  0
 98 99  2  0
 90100  1  0
 88101  1  0
101102  2  0
101103  1  0
103104  1  0
104105  1  0
105106  2  0
103107  2  0
 81108  1  0
108109  2  0
109110  1  0
110111  2  0
110112  1  0
112113  1  0
113114  2  0
113115  1  0
115116  2  0
115117  1  0
117118  2  0
 75119  1  0
119120  2  0
 11  2  1  0
 18 13  1  0
 39 25  1  0
 60 51  1  0
 71 66  1  0
120 72  1  0
 10  4  1  0
 47 26  1  0
 59 54  1  0
107 76  1  0
116109  1  0
 65 27  1  0
105 77  1  0
 47 30  2  0
118 78  1  0
 46 32  1  0
116 79  1  0
 39 34  1  0
106 80  1  0
 45 35  1  0
106 83  1  0
104 85  2  0
 98 89  1  0
 97 92  1  0
  1121  1  0
  1122  1  0
  1123  1  0
  8124  1  0
  8125  1  0
  8126  1  0
 16127  1  0
 17128  1  0
 19129  1  0
 19130  1  0
 20131  1  0
 21132  1  0
 22133  1  1
 23134  1  0
 23135  1  0
 23136  1  0
 24137  1  0
 24138  1  0
 29139  1  0
 37140  1  0
 38141  1  0
 42142  1  0
 46143  1  0
 56144  1  0
 57145  1  0
 58146  1  0
 59147  1  0
 62148  1  0
 62149  1  0
 62150  1  0
 65151  1  0
 68152  1  0
 71153  1  0
 73154  1  0
 74155  1  0
 84156  1  0
 94157  1  0
 95158  1  0
 96159  1  0
 97160  1  0
100161  1  0
100162  1  0
100163  1  0
107164  1  0
108165  1  0
112166  1  0
117167  1  0
118168  1  0
119169  1  0
120170  1  0
M  RAD  6  15   2  25   2  34   2  35   2  65   2  66   2
M  END
$$$$
