
     RDKit          3D

163181  0  0  0  0  0  0  0  0999 V2000
   13.4996    2.8176    4.8506 O   0  0  0  0  0  0  0  0  0  0  0  0
   12.5819    2.9857    4.0556 C   0  0  0  0  0  0  0  0  0  0  0  0
   12.7009    3.7199    2.7555 C   0  0  0  0  0  0  0  0  0  0  0  0
   11.6617    3.6448    1.9077 C   0  0  0  0  0  0  0  0  0  0  0  0
   11.4706    4.3432    0.5936 C   0  0  0  0  0  0  0  0  0  0  0  0
   11.9303    3.3073   -0.8395 S   0  0  0  0  0  0  0  0  0  0  0  0
   11.1116    1.7520   -0.4488 C   0  0  0  0  0  0  0  0  0  0  0  0
    9.7121    1.8302   -0.4635 C   0  0  0  0  0  0  0  0  0  0  0  0
    8.9014    0.7146   -0.2641 C   0  0  0  0  0  0  0  0  0  0  0  0
    9.5382   -0.5125    0.0504 C   0  0  0  0  0  0  0  0  0  0  0  0
    8.7048   -2.0143    0.3134 S   0  0  0  0  0  0  0  0  0  0  0  0
   10.1770   -2.8069    0.7132 C   0  0  0  0  0  0  0  0  0  0  0  0
   11.2665   -1.9967    0.5491 C   0  0  0  0  0  0  0  0  0  0  0  0
   10.9330   -0.6363    0.1280 C   0  0  0  0  0  0  0  0  0  0  0  0
   11.7753    0.5074   -0.2045 C   0  0  0  0  0  0  0  0  0  0  0  0
   13.2823    0.2723   -0.4091 C   0  0  2  0  0  0  0  0  0  0  0  0
   14.5038    1.5330    0.0488 S   0  0  0  0  0  0  0  0  0  0  0  0
   13.5758   -0.3390   -1.7974 C   0  0  0  0  0  0  0  0  0  0  0  0
   13.2917    0.5487   -3.0017 C   0  0  0  0  0  0  0  0  0  0  0  0
   12.7338   -2.8869    0.9279 S   0  0  0  0  0  0  0  0  0  0  0  0
   11.8442   -4.2808    1.3512 C   0  0  0  0  0  0  0  0  0  0  0  0
   10.4895   -4.1242    1.1701 C   0  0  0  0  0  0  0  0  0  0  0  0
   12.5273   -5.4682    1.8169 C   0  0  0  0  0  0  0  0  0  0  0  0
   13.7379   -5.5991    1.9758 O   0  0  0  0  0  0  0  0  0  0  0  0
    7.4393    0.7859   -0.3727 C   0  0  0  0  0  0  0  0  0  0  0  0
    6.6720    0.6975    0.8008 C   0  0  0  0  0  0  0  0  0  0  0  0
    5.2797    0.5072    0.7580 C   0  0  0  0  0  0  0  0  0  0  0  0
    4.6373    0.2991    2.0715 C   0  0  0  0  0  0  0  0  0  0  0  0
    4.3618    1.2619    2.7697 O   0  0  0  0  0  0  0  0  0  0  0  0
    4.4716   -1.0241    2.4169 N   0  0  0  0  0  0  0  0  0  0  0  0
    3.8741   -1.4130    3.6683 C   0  0  0  0  0  0  0  0  0  0  0  0
    4.5489    0.4451   -0.4516 C   0  0  0  0  0  0  0  0  0  0  0  0
    5.2991    0.6552   -1.6146 C   0  0  0  0  0  0  0  0  0  0  0  0
    4.9108    0.7121   -3.0254 C   0  0  0  0  0  0  0  0  0  0  0  0
    3.6906    0.6493   -3.6820 C   0  0  0  0  0  0  0  0  0  0  0  0
    3.6568    0.7347   -5.0864 C   0  0  0  0  0  0  0  0  0  0  0  0
    4.8419    0.8946   -5.8353 C   0  0  0  0  0  0  0  0  0  0  0  0
    6.0804    0.9722   -5.1799 C   0  0  0  0  0  0  0  0  0  0  0  0
    7.3400    1.1487   -5.7803 C   0  0  0  0  0  0  0  0  0  0  0  0
    8.4943    1.2153   -4.9806 C   0  0  0  0  0  0  0  0  0  0  0  0
    8.4185    1.1048   -3.5775 C   0  0  0  0  0  0  0  0  0  0  0  0
    7.1798    0.9310   -2.9756 C   0  0  0  0  0  0  0  0  0  0  0  0
    6.7347    0.8109   -1.5788 C   0  0  0  0  0  0  0  0  0  0  0  0
    6.0575    0.8720   -3.7861 C   0  0  0  0  0  0  0  0  0  0  0  0
    3.1208    0.0688   -0.4337 C   0  0  0  0  0  0  0  0  0  0  0  0
    2.7380   -1.2652   -0.7221 C   0  0  0  0  0  0  0  0  0  0  0  0
    1.4335   -1.6972   -0.4796 C   0  0  0  0  0  0  0  0  0  0  0  0
    0.5597   -0.8128    0.1906 C   0  0  0  0  0  0  0  0  0  0  0  0
    0.8939    0.5432    0.3871 C   0  0  0  0  0  0  0  0  0  0  0  0
   -0.0641    1.7773    1.1403 S   0  0  0  0  0  0  0  0  0  0  0  0
    1.0898    2.9858    0.7051 C   0  0  0  0  0  0  0  0  0  0  0  0
    1.1146    4.4094    0.7727 C   0  0  0  0  0  0  0  0  0  0  0  0
    2.3044    4.9119    0.2932 C   0  0  0  0  0  0  0  0  0  0  0  0
    2.6646    6.3071    0.1538 C   0  0  0  0  0  0  0  0  0  0  0  0
    3.7268    6.7514   -0.2737 O   0  0  0  0  0  0  0  0  0  0  0  0
    3.4114    3.6916   -0.1635 S   0  0  0  0  0  0  0  0  0  0  0  0
    2.2241    2.4464    0.1785 C   0  0  0  0  0  0  0  0  0  0  0  0
    2.1579    1.0135    0.0101 C   0  0  0  0  0  0  0  0  0  0  0  0
   -0.6065   -1.3921    0.8778 C   0  0  0  0  0  0  0  0  0  0  0  0
   -2.2260   -1.0104    0.4602 S   0  0  0  0  0  0  0  0  0  0  0  0
   -2.8672   -1.8919    1.7974 C   0  0  0  0  0  0  0  0  0  0  0  0
   -1.8606   -2.5967    2.4335 C   0  0  0  0  0  0  0  0  0  0  0  0
   -0.5672   -2.2925    1.9266 C   0  0  0  0  0  0  0  0  0  0  0  0
   -4.2525   -1.8460    2.2270 C   0  0  0  0  0  0  0  0  0  0  0  0
   -4.7089   -2.1957    3.4904 C   0  0  0  0  0  0  0  0  0  0  0  0
   -6.0877   -1.9050    3.6833 C   0  0  0  0  0  0  0  0  0  0  0  0
   -6.6637   -1.3358    2.5692 C   0  0  0  0  0  0  0  0  0  0  0  0
   -5.5627   -1.3025    1.2613 S   0  0  0  0  0  0  0  0  0  0  0  0
   -8.1308   -0.7116    2.5680 C   0  0  0  0  0  0  0  0  0  0  0  0
   -8.7954   -0.5028    3.7621 C   0  0  0  0  0  0  0  0  0  0  0  0
  -10.1863    0.4637    3.5835 S   0  0  0  0  0  0  0  0  0  0  0  0
  -10.0099    0.5090    1.8764 C   0  0  0  0  0  0  0  0  0  0  0  0
  -10.9960    1.3242    1.0663 C   0  0  0  0  0  0  0  0  0  0  0  0
  -12.4523    0.9458    1.1140 C   0  0  0  0  0  3  0  0  0  0  0  0
  -13.4135    1.6789    1.8296 N   0  0  0  0  0  0  0  0  0  0  0  0
  -13.1931    2.8850    2.6028 C   0  0  0  0  0  0  0  0  0  0  0  0
  -14.6789    1.4222    1.2850 C   0  0  0  0  0  0  0  0  0  0  0  0
  -14.6047    0.4536    0.2621 C   0  0  0  0  0  0  0  0  0  0  0  0
  -15.7436    0.0566   -0.4410 C   0  0  0  0  0  0  0  0  0  0  0  0
  -16.9695    0.6268   -0.1025 C   0  0  0  0  0  0  0  0  0  0  0  0
  -17.0491    1.5860    0.9187 C   0  0  0  0  0  0  0  0  0  0  0  0
  -15.9026    1.9897    1.6131 C   0  0  0  0  0  0  0  0  0  0  0  0
  -13.1429   -0.0129    0.0776 C   0  0  0  0  0  0  0  0  0  0  0  0
  -13.0791   -1.5131    0.4746 C   0  0  0  0  0  0  0  0  0  0  0  0
  -12.7015   -1.9394    1.7597 C   0  0  0  0  0  0  0  0  0  0  0  0
  -12.6640   -3.2968    2.0925 C   0  0  0  0  0  0  0  0  0  0  0  0
  -13.0007   -4.2607    1.1503 C   0  0  0  0  0  0  0  0  0  0  0  0
  -13.4353   -3.8674   -0.1123 C   0  0  0  0  0  0  0  0  0  0  0  0
  -13.4740   -2.5108   -0.4405 C   0  0  0  0  0  0  0  0  0  0  0  0
  -12.5858    0.3036   -1.3405 C   0  0  0  0  0  0  0  0  0  0  0  0
  -11.5487   -0.4757   -1.9107 C   0  0  0  0  0  0  0  0  0  0  0  0
  -11.0123   -0.1634   -3.1606 C   0  0  0  0  0  0  0  0  0  0  0  0
  -11.4771    0.9476   -3.8632 C   0  0  0  0  0  0  0  0  0  0  0  0
  -12.4710    1.7486   -3.3047 C   0  0  0  0  0  0  0  0  0  0  0  0
  -13.0134    1.4348   -2.0624 C   0  0  0  0  0  0  0  0  0  0  0  0
   -8.8873   -0.2094    1.4499 C   0  0  0  0  0  0  0  0  0  0  0  0
   -8.5638   -0.4102    0.0481 C   0  0  0  0  0  0  0  0  0  0  0  0
   -8.4133   -1.4983   -0.4922 O   0  0  0  0  0  0  0  0  0  0  0  0
   -8.4648    0.7310   -0.6652 O   0  0  0  0  0  0  0  0  0  0  0  0
    1.2423   -3.0321   -0.9922 C   0  0  0  0  0  0  0  0  0  0  0  0
   -0.1203   -4.1171   -1.1722 S   0  0  0  0  0  0  0  0  0  0  0  0
    0.8688   -5.2862   -1.9310 C   0  0  0  0  0  0  0  0  0  0  0  0
    2.1915   -4.9099   -2.0141 C   0  0  0  0  0  0  0  0  0  0  0  0
    2.3888   -3.5979   -1.4772 C   0  0  0  0  0  0  0  0  0  0  0  0
    3.7541   -2.5554   -1.3061 S   0  0  0  0  0  0  0  0  0  0  0  0
    0.2645   -6.5183   -2.3828 C   0  0  0  0  0  0  0  0  0  0  0  0
    0.8590   -7.4670   -2.8828 O   0  0  0  0  0  0  0  0  0  0  0  0
   14.1624    4.6114    2.4968 S   0  0  0  0  0  0  0  0  0  0  0  0
   11.5723    2.5891    4.2798 H   0  0  0  0  0  0  0  0  0  0  0  0
   10.8051    3.0419    2.2058 H   0  0  0  0  0  0  0  0  0  0  0  0
   10.4184    4.6426    0.4922 H   0  0  0  0  0  0  0  0  0  0  0  0
   12.0506    5.2722    0.5332 H   0  0  0  0  0  0  0  0  0  0  0  0
    9.2232    2.7811   -0.7043 H   0  0  0  0  0  0  0  0  0  0  0  0
   13.5630   -0.4830    0.3297 H   0  0  0  0  0  0  0  0  0  0  0  0
   14.1041    2.4626   -0.8324 H   0  0  0  0  0  0  0  0  0  0  0  0
   14.6227   -0.6654   -1.8473 H   0  0  0  0  0  0  0  0  0  0  0  0
   12.9801   -1.2573   -1.9151 H   0  0  0  0  0  0  0  0  0  0  0  0
   13.9355    1.4337   -3.0251 H   0  0  0  0  0  0  0  0  0  0  0  0
   13.4896   -0.0116   -3.9265 H   0  0  0  0  0  0  0  0  0  0  0  0
   12.2441    0.8645   -3.0341 H   0  0  0  0  0  0  0  0  0  0  0  0
    9.7470   -4.8910    1.3650 H   0  0  0  0  0  0  0  0  0  0  0  0
   11.8646   -6.3219    2.0471 H   0  0  0  0  0  0  0  0  0  0  0  0
    7.1689    0.6991    1.7708 H   0  0  0  0  0  0  0  0  0  0  0  0
    4.6887   -1.7422    1.7421 H   0  0  0  0  0  0  0  0  0  0  0  0
    4.3435   -2.3429    4.0014 H   0  0  0  0  0  0  0  0  0  0  0  0
    2.8074   -1.5802    3.5095 H   0  0  0  0  0  0  0  0  0  0  0  0
    4.0170   -0.6353    4.4219 H   0  0  0  0  0  0  0  0  0  0  0  0
    2.7547    0.5524   -3.1398 H   0  0  0  0  0  0  0  0  0  0  0  0
    2.7031    0.6817   -5.6045 H   0  0  0  0  0  0  0  0  0  0  0  0
    4.7838    0.9692   -6.9192 H   0  0  0  0  0  0  0  0  0  0  0  0
    7.4286    1.2433   -6.8601 H   0  0  0  0  0  0  0  0  0  0  0  0
    9.4658    1.3582   -5.4544 H   0  0  0  0  0  0  0  0  0  0  0  0
    9.3338    1.1642   -3.0074 H   0  0  0  0  0  0  0  0  0  0  0  0
    0.2962    5.0182    1.1349 H   0  0  0  0  0  0  0  0  0  0  0  0
    1.8626    7.0079    0.4558 H   0  0  0  0  0  0  0  0  0  0  0  0
   -2.0214   -3.2542    3.2762 H   0  0  0  0  0  0  0  0  0  0  0  0
    0.3532   -2.6937    2.3377 H   0  0  0  0  0  0  0  0  0  0  0  0
   -4.0702   -2.5683    4.2792 H   0  0  0  0  0  0  0  0  0  0  0  0
   -6.5962   -2.0542    4.6282 H   0  0  0  0  0  0  0  0  0  0  0  0
   -8.4870   -0.7673    4.7622 H   0  0  0  0  0  0  0  0  0  0  0  0
  -10.6722    1.3649    0.0231 H   0  0  0  0  0  0  0  0  0  0  0  0
  -10.8825    2.3707    1.3894 H   0  0  0  0  0  0  0  0  0  0  0  0
  -13.1013    3.7566    1.9460 H   0  0  0  0  0  0  0  0  0  0  0  0
  -13.9912    3.0651    3.3305 H   0  0  0  0  0  0  0  0  0  0  0  0
  -12.2667    2.8129    3.1851 H   0  0  0  0  0  0  0  0  0  0  0  0
  -15.6868   -0.6805   -1.2356 H   0  0  0  0  0  0  0  0  0  0  0  0
  -17.8709    0.3255   -0.6283 H   0  0  0  0  0  0  0  0  0  0  0  0
  -18.0116    2.0207    1.1734 H   0  0  0  0  0  0  0  0  0  0  0  0
  -15.9933    2.7279    2.4011 H   0  0  0  0  0  0  0  0  0  0  0  0
  -12.4647   -1.2187    2.5365 H   0  0  0  0  0  0  0  0  0  0  0  0
  -12.3696   -3.5938    3.0958 H   0  0  0  0  0  0  0  0  0  0  0  0
  -12.9692   -5.3139    1.4096 H   0  0  0  0  0  0  0  0  0  0  0  0
  -13.7318   -4.6102   -0.8466 H   0  0  0  0  0  0  0  0  0  0  0  0
  -13.8355   -2.2381   -1.4328 H   0  0  0  0  0  0  0  0  0  0  0  0
  -11.1469   -1.3377   -1.3865 H   0  0  0  0  0  0  0  0  0  0  0  0
  -10.2367   -0.7974   -3.5885 H   0  0  0  0  0  0  0  0  0  0  0  0
  -11.0617    1.1866   -4.8365 H   0  0  0  0  0  0  0  0  0  0  0  0
  -12.8264    2.6208   -3.8468 H   0  0  0  0  0  0  0  0  0  0  0  0
  -13.7801    2.0946   -1.6560 H   0  0  0  0  0  0  0  0  0  0  0  0
   -8.3215    0.4166   -1.5810 H   0  0  0  0  0  0  0  0  0  0  0  0
    2.9718   -5.5263   -2.4489 H   0  0  0  0  0  0  0  0  0  0  0  0
   -0.8294   -6.5869   -2.2617 H   0  0  0  0  0  0  0  0  0  0  0  0
   14.1628    4.6610    1.1564 H   0  0  0  0  0  0  0  0  0  0  0  0
  1  2  2  0
  2  3  1  0
  3  4  2  0
  4  5  1  0
  5  6  1  0
  6  7  1  0
  7  8  2  0
  8  9  1  0
  9 10  2  0
 10 11  1  0
 11 12  1  0
 12 13  2  0
 13 14  1  0
 14 15  2  0
 15 16  1  0
 16 17  1  0
 16 18  1  0
 18 19  1  0
 13 20  1  0
 20 21  1  0
 21 22  2  0
 21 23  1  0
 23 24  2  0
  9 25  1  0
 25 26  2  0
 26 27  1  0
 27 28  1  0
 28 29  2  0
 28 30  1  0
 30 31  1  0
 27 32  2  0
 32 33  1  0
 33 34  1  0
 34 35  1  0
 35 36  2  0
 36 37  1  0
 37 38  2  0
 38 39  1  0
 39 40  2  0
 40 41  1  0
 41 42  2  0
 42 43  1  0
 42 44  1  0
 32 45  1  0
 45 46  1  0
 46 47  2  0
 47 48  1  0
 48 49  2  0
 49 50  1  0
 50 51  1  0
 51 52  1  0
 52 53  2  0
 53 54  1  0
 54 55  2  0
 53 56  1  0
 56 57  1  0
 57 58  1  0
 48 59  1  0
 59 60  1  0
 60 61  1  0
 61 62  2  0
 62 63  1  0
 61 64  1  0
 64 65  2  0
 65 66  1  0
 66 67  2  0
 67 68  1  0
 67 69  1  0
 69 70  2  0
 70 71  1  0
 71 72  1  0
 72 73  1  0
 73 74  1  0
 74 75  1  0
 75 76  1  0
 75 77  1  0
 77 78  2  0
 78 79  1  0
 79 80  2  0
 80 81  1  0
 81 82  2  0
 78 83  1  0
 83 84  1  0
 84 85  2  0
 85 86  1  0
 86 87  2  0
 87 88  1  0
 88 89  2  0
 83 90  1  0
 90 91  2  0
 91 92  1  0
 92 93  2  0
 93 94  1  0
 94 95  2  0
 72 96  2  0
 96 97  1  0
 97 98  2  0
 97 99  1  0
 47100  1  0
100101  1  0
101102  1  0
102103  2  0
103104  1  0
104105  1  0
102106  1  0
106107  2  0
  3108  1  0
 15  7  1  0
 43 25  1  0
 58 45  2  0
 63 59  2  0
 68 64  1  0
 96 69  1  0
104100  2  0
 14 10  1  0
 43 33  2  0
105 46  1  0
 22 12  1  0
 44 34  2  0
 58 49  1  0
 83 74  1  0
 89 84  1  0
 95 90  1  0
 44 38  1  0
 57 51  2  0
 82 77  1  0
  2109  1  0
  4110  1  0
  5111  1  0
  5112  1  0
  8113  1  0
 16114  1  1
 17115  1  0
 18116  1  0
 18117  1  0
 19118  1  0
 19119  1  0
 19120  1  0
 22121  1  0
 23122  1  0
 26123  1  0
 30124  1  0
 31125  1  0
 31126  1  0
 31127  1  0
 35128  1  0
 36129  1  0
 37130  1  0
 39131  1  0
 40132  1  0
 41133  1  0
 52134  1  0
 54135  1  0
 62136  1  0
 63137  1  0
 65138  1  0
 66139  1  0
 70140  1  0
 73141  1  0
 73142  1  0
 76143  1  0
 76144  1  0
 76145  1  0
 79146  1  0
 80147  1  0
 81148  1  0
 82149  1  0
 85150  1  0
 86151  1  0
 87152  1  0
 88153  1  0
 89154  1  0
 91155  1  0
 92156  1  0
 93157  1  0
 94158  1  0
 95159  1  0
 99160  1  0
103161  1  0
106162  1  0
108163  1  0
M  RAD  1  74   2
M  END
$$$$
