
     RDKit          3D

148167  0  0  0  0  0  0  0  0999 V2000
  -12.2351   -1.6345    0.6498 Si  0  0  0  0  0  3  0  0  0  0  0  0
  -11.2569   -1.2460    2.2574 C   0  0  0  0  0  3  0  0  0  0  0  0
  -12.2672   -1.1502    3.2960 C   0  0  0  0  0  0  0  0  0  0  0  0
  -13.5629   -1.3107    2.9622 C   0  0  0  0  0  0  0  0  0  0  0  0
  -14.5885   -1.2066    3.8864 O   0  0  0  0  0  0  0  0  0  0  0  0
  -14.1807   -0.9403    5.1832 C   0  0  0  0  0  0  0  0  0  0  0  0
  -12.8934   -0.7779    5.5162 C   0  0  0  0  0  0  0  0  0  0  0  0
  -11.8660   -0.8708    4.5917 O   0  0  0  0  0  0  0  0  0  0  0  0
  -13.8902   -1.5675    1.5793 C   0  0  0  0  0  3  0  0  0  0  0  0
  -15.1610   -1.4622    0.8652 C   0  0  0  0  0  0  0  0  0  0  0  0
  -15.8267   -0.2218    0.6443 C   0  0  0  0  0  0  0  0  0  0  0  0
  -15.3291    1.0231    1.1011 C   0  0  0  0  0  0  0  0  0  0  0  0
  -16.0010    2.2213    0.8618 C   0  0  0  0  0  0  0  0  0  0  0  0
  -17.1922    2.2090    0.1525 C   0  0  0  0  0  0  0  0  0  0  0  0
  -17.7134    0.9965   -0.3137 C   0  0  0  0  0  0  0  0  0  0  0  0
  -17.0513   -0.2185   -0.0761 C   0  0  0  0  0  0  0  0  0  0  0  0
  -17.5848   -1.4286   -0.5372 C   0  0  0  0  0  0  0  0  0  0  0  0
  -16.9304   -2.6410   -0.2966 C   0  0  0  0  0  0  0  0  0  0  0  0
  -15.7276   -2.6557    0.4013 C   0  0  0  0  0  0  0  0  0  0  0  0
  -18.8629   -1.4408   -1.2874 C   0  0  0  0  0  0  0  0  0  0  0  0
  -19.3447   -2.5162   -1.6343 O   0  0  0  0  0  0  0  0  0  0  0  0
  -19.4536   -0.2072   -1.5497 N   0  0  0  0  0  0  0  0  0  0  0  0
  -20.7095   -0.1999   -2.2787 C   0  0  0  0  0  0  0  0  0  0  0  0
  -18.9862    1.0146   -1.0725 C   0  0  0  0  0  0  0  0  0  0  0  0
  -19.5663    2.0816   -1.2510 O   0  0  0  0  0  0  0  0  0  0  0  0
   -9.9949   -0.6112    2.1523 C   0  0  0  0  0  0  0  0  0  0  0  0
   -9.6643    0.6978    2.4510 C   0  0  0  0  0  0  0  0  0  0  0  0
   -8.2977    0.9938    2.1935 C   0  0  0  0  0  0  0  0  0  0  0  0
   -7.5973   -0.1060    1.7383 C   0  0  0  0  0  0  0  0  0  0  0  0
   -6.1691   -0.1963    1.4151 C   0  0  0  0  0  0  0  0  0  0  0  0
   -5.1961    0.2161    2.3277 C   0  0  0  0  0  0  0  0  0  0  0  0
   -5.4460    0.7419    3.6258 N   0  0  0  0  0  0  0  0  0  0  0  0
   -3.9673    0.9942    4.3802 S   0  0  0  0  0  0  0  0  0  0  0  0
   -2.9940    0.7450    3.0272 N   0  0  0  0  0  0  0  0  0  0  0  0
   -3.8165    0.2206    1.9904 C   0  0  0  0  0  0  0  0  0  0  0  0
   -3.3741   -0.1815    0.7260 C   0  0  0  0  0  0  0  0  0  0  0  0
   -4.3541   -0.6553   -0.1599 C   0  0  0  0  0  0  0  0  0  0  0  0
   -3.9851   -1.0904   -1.3774 F   0  0  0  0  0  0  0  0  0  0  0  0
   -5.7177   -0.6524    0.1697 C   0  0  0  0  0  0  0  0  0  0  0  0
   -6.5946   -1.0662   -0.7592 F   0  0  0  0  0  0  0  0  0  0  0  0
   -1.9624   -0.0774    0.3201 C   0  0  0  0  0  0  0  0  0  0  0  0
   -1.0415   -0.9475    0.9245 C   0  0  0  0  0  0  0  0  0  0  0  0
    0.3294   -0.8599    0.6570 C   0  0  0  0  0  0  0  0  0  0  0  0
    1.2472   -1.7893    1.3520 C   0  0  0  0  0  0  0  0  0  0  0  0
    0.7833   -2.5964    2.1522 O   0  0  0  0  0  0  0  0  0  0  0  0
    2.5991   -1.6491    1.0808 N   0  0  0  0  0  0  0  0  0  0  0  0
    3.5139   -2.4777    1.8451 C   0  0  0  0  0  0  0  0  0  0  0  0
    3.1359   -0.5452    0.4258 C   0  0  0  0  0  0  0  0  0  0  0  0
    4.2776   -0.1462    0.6298 O   0  0  0  0  0  0  0  0  0  0  0  0
    2.2127    0.2118   -0.4745 C   0  0  0  0  0  0  0  0  0  0  0  0
    0.8261    0.0751   -0.2534 C   0  0  0  0  0  0  0  0  0  0  0  0
   -0.0953    0.9074   -0.9434 C   0  0  0  0  0  0  0  0  0  0  0  0
   -1.4738    0.8535   -0.6304 C   0  0  0  0  0  0  0  0  0  0  0  0
   -2.3766    1.8461   -1.2984 C   0  0  0  0  0  0  0  0  0  0  0  0
   -3.5133    2.0442   -0.8768 O   0  0  0  0  0  0  0  0  0  0  0  0
   -1.8585    2.5496   -2.3846 N   0  0  0  0  0  0  0  0  0  0  0  0
   -0.5105    2.6470   -2.6861 C   0  0  0  0  0  0  0  0  0  0  0  0
   -0.0472    3.4032   -3.5342 O   0  0  0  0  0  0  0  0  0  0  0  0
    0.4060    1.7869   -1.9080 C   0  0  0  0  0  0  0  0  0  0  0  0
    1.7791    1.8677   -2.1734 C   0  0  0  0  0  0  0  0  0  0  0  0
    2.7067    1.0979   -1.4590 C   0  0  0  0  0  0  0  0  0  0  0  0
    4.1349    1.2636   -1.7655 C   0  0  0  0  0  0  0  0  0  0  0  0
    4.9039    0.2725   -2.3792 C   0  0  0  0  0  0  0  0  0  0  0  0
    6.3132    0.4098   -2.5335 C   0  0  0  0  0  0  0  0  0  0  0  0
    6.9826    1.5619   -2.1064 C   0  0  0  0  0  0  0  0  0  0  0  0
    6.1893    2.5858   -1.5576 C   0  0  0  0  0  0  0  0  0  0  0  0
    4.8101    2.4295   -1.3859 C   0  0  0  0  0  0  0  0  0  0  0  0
    4.1333    3.4315   -0.8000 F   0  0  0  0  0  0  0  0  0  0  0  0
    8.4480    1.7400   -2.1250 C   0  0  0  0  0  0  0  0  0  0  0  0
    9.4323    1.1179   -3.3880 S   0  0  0  0  0  0  0  0  0  0  0  0
   10.8882    1.6131   -2.6228 C   0  0  0  0  0  0  0  0  0  0  0  0
   10.6128    2.3636   -1.4974 C   0  0  0  0  0  0  0  0  0  0  0  0
    9.2241    2.4183   -1.2019 C   0  0  0  0  0  0  0  0  0  0  0  0
   12.1648    1.2534   -3.1452 C   0  0  0  0  0  3  0  0  0  0  0  0
   13.4238    1.9682   -2.9655 C   0  0  0  0  0  0  0  0  0  0  0  0
   14.4932    1.3174   -2.4646 C   0  0  0  0  0  0  0  0  0  0  0  0
   14.3756   -0.0925   -2.1631 C   0  0  0  0  0  3  0  0  0  0  0  0
   12.6701   -0.6246   -2.8128 Si  0  0  0  0  0  3  0  0  0  0  0  0
   12.8204   -1.4937   -4.4522 C   0  0  0  0  0  0  0  0  0  0  0  0
   15.0377   -0.8683   -1.1123 C   0  0  0  0  0  0  0  0  0  0  0  0
   16.0291   -1.7630   -1.5343 C   0  0  0  0  0  0  0  0  0  0  0  0
   16.7064   -2.5501   -0.6093 C   0  0  0  0  0  0  0  0  0  0  0  0
   16.4002   -2.4521    0.7524 C   0  0  0  0  0  0  0  0  0  0  0  0
   15.4228   -1.5576    1.2082 C   0  0  0  0  0  0  0  0  0  0  0  0
   15.1209   -1.4593    2.5753 C   0  0  0  0  0  0  0  0  0  0  0  0
   14.1546   -0.5589    3.0427 C   0  0  0  0  0  0  0  0  0  0  0  0
   13.4841    0.2591    2.1460 C   0  0  0  0  0  0  0  0  0  0  0  0
   13.7722    0.1715    0.7841 C   0  0  0  0  0  0  0  0  0  0  0  0
   14.7333   -0.7377    0.2747 C   0  0  0  0  0  0  0  0  0  0  0  0
   15.8241   -2.3176    3.5555 C   0  0  0  0  0  0  0  0  0  0  0  0
   15.5599   -2.2111    4.7513 O   0  0  0  0  0  0  0  0  0  0  0  0
   16.7650   -3.2127    3.0525 N   0  0  0  0  0  0  0  0  0  0  0  0
   17.1329   -3.3093    1.7145 C   0  0  0  0  0  0  0  0  0  0  0  0
   18.0216   -4.0501    1.3002 O   0  0  0  0  0  0  0  0  0  0  0  0
   17.4524   -4.0476    4.0206 C   0  0  0  0  0  0  0  0  0  0  0  0
   15.6889    1.9574   -2.1838 O   0  0  0  0  0  0  0  0  0  0  0  0
   15.7136    3.3096   -2.4772 C   0  0  0  0  0  0  0  0  0  0  0  0
   14.6558    3.9559   -2.9908 C   0  0  0  0  0  0  0  0  0  0  0  0
   13.4518    3.3255   -3.2480 O   0  0  0  0  0  0  0  0  0  0  0  0
    6.9140   -0.7722   -3.0458 N   0  0  0  0  0  0  0  0  0  0  0  0
    5.6934   -1.8083   -3.5511 S   0  0  0  0  0  0  0  0  0  0  0  0
    4.4054   -0.9834   -2.8352 N   0  0  0  0  0  0  0  0  0  0  0  0
   -2.7637    3.4399   -3.0915 C   0  0  0  0  0  0  0  0  0  0  0  0
   -8.6095   -1.4798    1.6236 S   0  0  0  0  0  0  0  0  0  0  0  0
  -12.1053   -0.2303   -0.5607 C   0  0  0  0  0  0  0  0  0  0  0  0
  -15.0170   -0.8832    5.8624 H   0  0  0  0  0  0  0  0  0  0  0  0
  -12.5230   -0.5687    6.5092 H   0  0  0  0  0  0  0  0  0  0  0  0
  -14.3980    1.0765    1.6634 H   0  0  0  0  0  0  0  0  0  0  0  0
  -15.5923    3.1596    1.2309 H   0  0  0  0  0  0  0  0  0  0  0  0
  -17.7142    3.1456   -0.0368 H   0  0  0  0  0  0  0  0  0  0  0  0
  -17.3582   -3.5778   -0.6488 H   0  0  0  0  0  0  0  0  0  0  0  0
  -15.2390   -3.6103    0.5866 H   0  0  0  0  0  0  0  0  0  0  0  0
  -21.5263   -0.2153   -1.5487 H   0  0  0  0  0  0  0  0  0  0  0  0
  -20.7985    0.7064   -2.8858 H   0  0  0  0  0  0  0  0  0  0  0  0
  -20.7975   -1.0715   -2.9319 H   0  0  0  0  0  0  0  0  0  0  0  0
  -10.3817    1.4210    2.8197 H   0  0  0  0  0  0  0  0  0  0  0  0
   -7.8479    1.9696    2.3446 H   0  0  0  0  0  0  0  0  0  0  0  0
   -6.1654    0.2267    4.1286 H   0  0  0  0  0  0  0  0  0  0  0  0
   -2.1490    0.2007    3.1736 H   0  0  0  0  0  0  0  0  0  0  0  0
   -1.3980   -1.7007    1.6310 H   0  0  0  0  0  0  0  0  0  0  0  0
    3.1144   -3.4922    1.9492 H   0  0  0  0  0  0  0  0  0  0  0  0
    4.4928   -2.5286    1.3567 H   0  0  0  0  0  0  0  0  0  0  0  0
    3.6335   -2.0380    2.8420 H   0  0  0  0  0  0  0  0  0  0  0  0
    2.1356    2.5647   -2.9341 H   0  0  0  0  0  0  0  0  0  0  0  0
    6.6345    3.5173   -1.2152 H   0  0  0  0  0  0  0  0  0  0  0  0
   11.3790    2.8146   -0.8789 H   0  0  0  0  0  0  0  0  0  0  0  0
    8.8204    2.9144   -0.3280 H   0  0  0  0  0  0  0  0  0  0  0  0
   13.2907   -2.4738   -4.3304 H   0  0  0  0  0  0  0  0  0  0  0  0
   11.8337   -1.6461   -4.9011 H   0  0  0  0  0  0  0  0  0  0  0  0
   13.4249   -0.9136   -5.1559 H   0  0  0  0  0  0  0  0  0  0  0  0
   16.2856   -1.8476   -2.5907 H   0  0  0  0  0  0  0  0  0  0  0  0
   17.4777   -3.2381   -0.9536 H   0  0  0  0  0  0  0  0  0  0  0  0
   13.9274   -0.4919    4.1052 H   0  0  0  0  0  0  0  0  0  0  0  0
   12.7399    0.9673    2.5025 H   0  0  0  0  0  0  0  0  0  0  0  0
   13.2314    0.8404    0.1188 H   0  0  0  0  0  0  0  0  0  0  0  0
   18.0355   -4.8405    3.5458 H   0  0  0  0  0  0  0  0  0  0  0  0
   18.1231   -3.4148    4.6128 H   0  0  0  0  0  0  0  0  0  0  0  0
   16.7215   -4.5030    4.6967 H   0  0  0  0  0  0  0  0  0  0  0  0
   16.6711    3.7519   -2.2553 H   0  0  0  0  0  0  0  0  0  0  0  0
   14.6258    5.0058   -3.2431 H   0  0  0  0  0  0  0  0  0  0  0  0
    7.6809   -0.5706   -3.6820 H   0  0  0  0  0  0  0  0  0  0  0  0
    3.5786   -0.8651   -3.4144 H   0  0  0  0  0  0  0  0  0  0  0  0
   -2.7942    4.3973   -2.5604 H   0  0  0  0  0  0  0  0  0  0  0  0
   -2.4214    3.6109   -4.1171 H   0  0  0  0  0  0  0  0  0  0  0  0
   -3.7737    3.0207   -3.1234 H   0  0  0  0  0  0  0  0  0  0  0  0
  -12.2553    0.7352   -0.0696 H   0  0  0  0  0  0  0  0  0  0  0  0
  -11.1206   -0.2153   -1.0365 H   0  0  0  0  0  0  0  0  0  0  0  0
  -12.8566   -0.3252   -1.3497 H   0  0  0  0  0  0  0  0  0  0  0  0
  1  2  1  0
  2  3  1  0
  3  4  2  0
  4  5  1  0
  5  6  1  0
  6  7  2  0
  7  8  1  0
  4  9  1  0
  9 10  1  0
 10 11  1  0
 11 12  2  0
 12 13  1  0
 13 14  2  0
 14 15  1  0
 15 16  2  0
 16 17  1  0
 17 18  2  0
 18 19  1  0
 17 20  1  0
 20 21  2  0
 20 22  1  0
 22 23  1  0
 22 24  1  0
 24 25  2  0
  2 26  1  0
 26 27  2  0
 27 28  1  0
 28 29  2  0
 29 30  1  0
 30 31  2  0
 31 32  1  0
 32 33  1  0
 33 34  1  0
 34 35  1  0
 35 36  2  0
 36 37  1  0
 37 38  1  0
 37 39  2  0
 39 40  1  0
 36 41  1  0
 41 42  2  0
 42 43  1  0
 43 44  1  0
 44 45  2  0
 44 46  1  0
 46 47  1  0
 46 48  1  0
 48 49  2  0
 48 50  1  0
 50 51  1  0
 51 52  1  0
 52 53  2  0
 53 54  1  0
 54 55  2  0
 54 56  1  0
 56 57  1  0
 57 58  2  0
 57 59  1  0
 59 60  2  0
 60 61  1  0
 61 62  1  0
 62 63  1  0
 63 64  2  0
 64 65  1  0
 65 66  2  0
 66 67  1  0
 67 68  1  0
 65 69  1  0
 69 70  1  0
 70 71  1  0
 71 72  2  0
 72 73  1  0
 71 74  1  0
 74 75  1  0
 75 76  2  0
 76 77  1  0
 77 78  1  0
 78 79  1  0
 77 80  1  0
 80 81  2  0
 81 82  1  0
 82 83  2  0
 83 84  1  0
 84 85  2  0
 85 86  1  0
 86 87  2  0
 87 88  1  0
 88 89  2  0
 85 90  1  0
 90 91  2  0
 90 92  1  0
 92 93  1  0
 93 94  2  0
 92 95  1  0
 76 96  1  0
 96 97  1  0
 97 98  2  0
 98 99  1  0
 64100  1  0
100101  1  0
101102  1  0
 56103  1  0
 29104  1  0
  1105  1  0
  9  1  1  0
 19 10  2  0
104 26  1  0
  8  3  1  0
 16 11  1  0
 39 30  1  0
 53 41  1  0
 67 62  2  0
 73 69  2  0
 78 74  1  0
 89 80  1  0
 24 15  1  0
 35 31  1  0
 51 43  2  0
 59 52  1  0
102 63  1  0
 61 50  2  0
 99 75  1  0
 93 83  1  0
 89 84  1  0
  6106  1  0
  7107  1  0
 12108  1  0
 13109  1  0
 14110  1  0
 18111  1  0
 19112  1  0
 23113  1  0
 23114  1  0
 23115  1  0
 27116  1  0
 28117  1  0
 32118  1  0
 34119  1  0
 42120  1  0
 47121  1  0
 47122  1  0
 47123  1  0
 60124  1  0
 66125  1  0
 72126  1  0
 73127  1  0
 79128  1  0
 79129  1  0
 79130  1  0
 81131  1  0
 82132  1  0
 86133  1  0
 87134  1  0
 88135  1  0
 95136  1  0
 95137  1  0
 95138  1  0
 97139  1  0
 98140  1  0
100141  1  0
102142  1  0
103143  1  0
103144  1  0
103145  1  0
105146  1  0
105147  1  0
105148  1  0
M  RAD  6   1   2   2   2   9   2  74   2  77   2  78   2
M  END
$$$$
