
     RDKit          3D

106122  0  0  0  0  0  0  0  0999 V2000
   -8.6263    0.7047   -2.3240 B   0  0  0  0  0  0  0  0  0  0  0  0
   -7.2139    0.3824   -2.9469 C   0  0  0  0  0  0  0  0  0  0  0  0
   -7.0456    0.6186   -4.2474 C   0  0  0  0  0  0  0  0  0  0  0  0
   -5.7351    0.3181   -4.8147 C   0  0  0  0  0  0  0  0  0  0  0  0
   -4.7375   -0.1645   -4.1139 C   0  0  0  0  0  0  0  0  0  0  0  0
   -3.4000   -0.4233   -4.9007 B   0  0  0  0  0  1  0  0  0  0  0  0
   -4.8525   -0.4521   -2.7023 C   0  0  0  0  0  3  0  0  0  0  0  0
   -3.6848   -0.2617   -1.8673 C   0  0  0  0  0  0  0  0  0  0  0  0
   -3.2197   -1.2310   -1.0081 C   0  0  0  0  0  0  0  0  0  0  0  0
   -2.1166   -1.0311   -0.2160 C   0  0  0  0  0  0  0  0  0  0  0  0
   -1.8253   -2.0348    0.6266 C   0  0  0  0  0  0  0  0  0  0  0  0
   -2.6192   -3.2221    0.7638 C   0  0  0  0  0  0  0  0  0  0  0  0
   -2.0455   -4.3579    1.1194 C   0  0  0  0  0  0  0  0  0  0  0  0
   -0.6106   -4.4608    1.3773 C   0  0  0  0  0  0  0  0  0  0  0  0
    0.1733   -3.3787    1.2619 C   0  0  0  0  0  0  0  0  0  0  0  0
    1.5885   -3.4242    1.4724 N   0  0  0  0  0  0  0  0  0  0  0  0
    2.2382   -4.7360    1.8738 B   0  0  0  0  0  0  0  0  0  0  0  0
    1.2767   -5.9705    2.0122 C   0  0  0  0  0  0  0  0  0  0  0  0
   -0.0651   -5.7718    1.7584 C   0  0  0  0  0  0  0  0  0  0  0  0
   -0.8760   -6.8970    1.8880 C   0  0  0  0  0  0  0  0  0  0  0  0
   -0.3612   -8.1306    2.2489 C   0  0  0  0  0  0  0  0  0  0  0  0
    0.9802   -8.2951    2.4954 C   0  0  0  0  0  0  0  0  0  0  0  0
    1.8037   -7.2022    2.3749 C   0  0  0  0  0  0  0  0  0  0  0  0
    2.3599   -2.3049    1.2432 N   0  0  0  0  0  0  0  0  0  0  0  0
    3.7825   -2.3741    1.3036 C   0  0  0  0  0  0  0  0  0  0  0  0
    4.4592   -3.5063    1.5907 C   0  0  0  0  0  0  0  0  0  0  0  0
    5.8639   -3.5080    1.5493 C   0  0  0  0  0  0  0  0  0  0  0  0
    6.5658   -2.3708    1.2146 C   0  0  0  0  0  0  0  0  0  0  0  0
    8.1234   -2.3930    1.1771 B   0  0  0  0  0  1  0  0  0  0  0  0
    5.8671   -1.2248    0.9174 C   0  0  0  0  0  0  0  0  0  0  0  0
    4.4747   -1.2093    0.9554 C   0  0  0  0  0  0  0  0  0  0  0  0
    3.7917   -0.0328    0.5497 N   0  0  0  0  0  0  0  0  0  0  0  0
    2.5168    0.0338    0.4830 C   0  0  0  0  0  0  0  0  0  0  0  0
    1.7537   -1.0466    0.8121 C   0  0  0  0  0  0  0  0  0  0  0  0
    0.3512   -1.0140    0.7381 C   0  0  0  0  0  0  0  0  0  0  0  0
   -0.4902   -2.0506    1.2011 C   0  0  0  0  0  3  0  0  0  0  0  0
   -0.1568    0.2538    0.3066 C   0  0  0  0  0  0  0  0  0  0  0  0
    0.5698    1.3352    0.0452 C   0  0  0  0  0  0  0  0  0  0  0  0
   -0.0678    2.6520   -0.0404 C   0  0  0  0  0  0  0  0  0  0  0  0
   -1.4153    2.8414    0.3493 C   0  0  0  0  0  0  0  0  0  0  0  0
   -1.9292    4.0831    0.5676 C   0  0  0  0  0  0  0  0  0  0  0  0
   -1.1732    5.2163    0.4321 C   0  0  0  0  0  0  0  0  0  0  0  0
    0.1497    5.0946    0.0710 C   0  0  0  0  0  0  0  0  0  0  0  0
    0.6631    3.8116   -0.1473 C   0  0  0  0  0  0  0  0  0  0  0  0
    2.2627    3.7754   -0.1420 B   0  0  0  0  0  0  0  0  0  0  0  0
    2.8315    2.3771   -0.0052 N   0  0  0  0  0  0  0  0  0  0  0  0
    1.9811    1.2740    0.0820 C   0  0  0  0  0  0  0  0  0  0  0  0
    0.9325    6.2180   -0.0847 C   0  0  0  0  0  0  0  0  0  0  0  0
    0.3991    7.4866    0.1217 C   0  0  0  0  0  0  0  0  0  0  0  0
   -0.9269    7.5599    0.4823 C   0  0  0  0  0  0  0  0  0  0  0  0
   -1.7265    6.4515    0.6423 C   0  0  0  0  0  0  0  0  0  0  0  0
   -1.4080    0.1727   -0.2246 C   0  0  0  0  0  0  0  0  0  0  0  0
   -1.8835    1.1270   -1.1115 C   0  0  0  0  0  0  0  0  0  0  0  0
   -2.9891    0.9176   -1.9023 C   0  0  0  0  0  0  0  0  0  0  0  0
   -3.4784    2.0524   -2.8710 B   0  0  0  0  0  1  0  0  0  0  0  0
    6.5428    0.0167    0.5516 C   0  0  0  0  0  0  0  0  0  0  0  0
    6.8534    0.3521   -0.7490 C   0  0  0  0  0  0  0  0  0  0  0  0
    7.4831    1.5118   -1.1236 C   0  0  0  0  0  0  0  0  0  0  0  0
    7.8337    2.4102   -0.1411 C   0  0  0  0  0  0  0  0  0  0  0  0
    8.4726    3.5940   -0.5147 C   0  0  0  0  0  0  0  0  0  0  0  0
    8.7283    3.8224   -1.8345 C   0  0  0  0  0  0  0  0  0  0  0  0
    8.3867    2.9366   -2.8427 C   0  0  0  0  0  0  0  0  0  0  0  0
    7.7549    1.7660   -2.4721 C   0  0  0  0  0  0  0  0  0  0  0  0
    7.5460    2.1229    1.1744 C   0  0  0  0  0  0  0  0  0  0  0  0
    6.9126    0.9509    1.5258 C   0  0  0  0  0  0  0  0  0  0  0  0
    6.6053    0.6318    2.8656 N   0  0  0  0  0  1  0  0  0  0  0  0
   -6.1566   -0.1483   -2.1039 C   0  0  0  0  0  0  0  0  0  0  0  0
   -6.4068   -0.3422   -0.8545 N   0  0  0  0  0  0  0  0  0  0  0  0
   -7.6161   -0.0956   -0.1858 C   0  0  0  0  0  0  0  0  0  0  0  0
   -7.7567   -0.3518    1.1875 C   0  0  0  0  0  0  0  0  0  0  0  0
   -8.9158   -0.1215    1.8572 C   0  0  0  0  0  0  0  0  0  0  0  0
  -10.0260    0.3789    1.2263 C   0  0  0  0  0  0  0  0  0  0  0  0
   -9.9335    0.6465   -0.1272 C   0  0  0  0  0  0  0  0  0  0  0  0
   -8.7431    0.4066   -0.7993 C   0  0  0  0  0  0  0  0  0  0  0  0
   -9.5935    0.8281   -2.9931 H   0  0  0  0  0  0  0  0  0  0  0  0
   -7.8723    1.0206   -4.8390 H   0  0  0  0  0  0  0  0  0  0  0  0
   -5.6284    0.5212   -5.8740 H   0  0  0  0  0  0  0  0  0  0  0  0
   -3.7726   -2.1671   -1.0045 H   0  0  0  0  0  0  0  0  0  0  0  0
   -3.6809   -3.1723    0.5869 H   0  0  0  0  0  0  0  0  0  0  0  0
   -2.7358   -5.1940    1.1994 H   0  0  0  0  0  0  0  0  0  0  0  0
    2.9047   -4.5876    2.9812 H   0  0  0  0  0  0  0  0  0  0  0  0
   -1.9316   -6.7968    1.7010 H   0  0  0  0  0  0  0  0  0  0  0  0
   -1.0513   -8.9865    2.3362 H   0  0  0  0  0  0  0  0  0  0  0  0
    1.4184   -9.2434    2.7797 H   0  0  0  0  0  0  0  0  0  0  0  0
    2.8794   -7.2169    2.5481 H   0  0  0  0  0  0  0  0  0  0  0  0
    4.0539   -4.4580    1.7552 H   0  0  0  0  0  0  0  0  0  0  0  0
    6.3939   -4.4181    1.7852 H   0  0  0  0  0  0  0  0  0  0  0  0
   -2.0799    2.0451    0.6859 H   0  0  0  0  0  0  0  0  0  0  0  0
   -2.9819    4.2343    0.8642 H   0  0  0  0  0  0  0  0  0  0  0  0
    2.8347    4.6621    0.4337 H   0  0  0  0  0  0  0  0  0  0  0  0
    3.8917    2.2461    0.0237 H   0  0  0  0  0  0  0  0  0  0  0  0
    1.9622    6.1830   -0.3765 H   0  0  0  0  0  0  0  0  0  0  0  0
    1.0048    8.3492    0.0010 H   0  0  0  0  0  0  0  0  0  0  0  0
   -1.3349    8.5673    0.6415 H   0  0  0  0  0  0  0  0  0  0  0  0
   -2.7844    6.5558    0.9313 H   0  0  0  0  0  0  0  0  0  0  0  0
   -1.3186    2.0203   -1.4478 H   0  0  0  0  0  0  0  0  0  0  0  0
    6.5869   -0.3443   -1.5531 H   0  0  0  0  0  0  0  0  0  0  0  0
    8.7336    4.2768    0.2842 H   0  0  0  0  0  0  0  0  0  0  0  0
    9.2244    4.7376   -2.1450 H   0  0  0  0  0  0  0  0  0  0  0  0
    8.5956    3.1308   -3.8863 H   0  0  0  0  0  0  0  0  0  0  0  0
    7.4727    1.0496   -3.2326 H   0  0  0  0  0  0  0  0  0  0  0  0
    7.8347    2.8498    1.9202 H   0  0  0  0  0  0  0  0  0  0  0  0
   -6.9052   -0.7486    1.7300 H   0  0  0  0  0  0  0  0  0  0  0  0
   -9.0253   -0.3214    2.9290 H   0  0  0  0  0  0  0  0  0  0  0  0
  -10.9506    0.5639    1.7560 H   0  0  0  0  0  0  0  0  0  0  0  0
  -10.7900    1.0485   -0.6848 H   0  0  0  0  0  0  0  0  0  0  0  0
  1  2  1  0
  2  3  2  0
  3  4  1  0
  4  5  2  0
  5  6  1  0
  5  7  1  0
  7  8  1  0
  8  9  2  0
  9 10  1  0
 10 11  2  0
 11 12  1  0
 12 13  2  0
 13 14  1  0
 14 15  2  0
 15 16  1  0
 16 17  1  0
 17 18  1  0
 18 19  2  0
 19 20  1  0
 20 21  2  0
 21 22  1  0
 22 23  2  0
 16 24  1  0
 24 25  1  0
 25 26  2  0
 26 27  1  0
 27 28  2  0
 28 29  1  0
 28 30  1  0
 30 31  2  0
 31 32  1  0
 32 33  2  0
 33 34  1  0
 34 35  2  0
 35 36  1  0
 35 37  1  0
 37 38  1  0
 38 39  1  0
 39 40  2  0
 40 41  1  0
 41 42  2  0
 42 43  1  0
 43 44  2  0
 44 45  1  0
 45 46  1  0
 46 47  1  0
 43 48  1  0
 48 49  2  0
 49 50  1  0
 50 51  2  0
 37 52  2  0
 52 53  1  0
 53 54  2  0
 54 55  1  0
 30 56  1  0
 56 57  2  0
 57 58  1  0
 58 59  2  0
 59 60  1  0
 60 61  2  0
 61 62  1  0
 62 63  2  0
 59 64  1  0
 64 65  2  0
 65 66  1  0
  7 67  1  0
 67 68  2  0
 68 69  1  0
 69 70  2  0
 70 71  1  0
 71 72  2  0
 72 73  1  0
 73 74  2  0
 74  1  1  0
 67  2  1  0
 74 69  1  0
 54  8  1  0
 65 56  1  0
 52 10  1  0
 63 58  1  0
 36 11  1  0
 47 38  2  0
 19 14  1  0
 34 24  1  0
 44 39  1  0
 36 15  1  0
 51 42  1  0
 23 18  1  0
 31 25  1  0
 47 33  1  0
  1 75  1  0
  3 76  1  0
  4 77  1  0
  9 78  1  0
 12 79  1  0
 13 80  1  0
 17 81  1  0
 20 82  1  0
 21 83  1  0
 22 84  1  0
 23 85  1  0
 26 86  1  0
 27 87  1  0
 40 88  1  0
 41 89  1  0
 45 90  1  0
 46 91  1  0
 48 92  1  0
 49 93  1  0
 50 94  1  0
 51 95  1  0
 53 96  1  0
 57 97  1  0
 60 98  1  0
 61 99  1  0
 62100  1  0
 63101  1  0
 64102  1  0
 70103  1  0
 71104  1  0
 72105  1  0
 73106  1  0
M  RAD  6   6   3   7   2  29   3  36   2  55   3  66   3
M  END
$$$$
