
     RDKit          3D

 85 96  0  0  0  0  0  0  0  0999 V2000
    8.0769   -1.4158    0.1265 O   0  0  0  0  0  0  0  0  0  0  0  0
    8.9770   -0.6841    0.6158 C   0  0  0  0  0  0  0  0  0  0  0  0
   10.2979   -1.1408    0.9864 C   0  0  0  0  0  0  0  0  0  0  0  0
   10.9850   -0.1197    1.6209 C   0  0  0  0  0  0  0  0  0  0  0  0
   12.2552   -0.3751    2.1651 C   0  0  0  0  0  0  0  0  0  0  0  0
   12.8256   -1.6503    2.0078 C   0  0  0  0  0  0  0  0  0  0  0  0
   14.0555   -1.9068    2.5203 F   0  0  0  0  0  0  0  0  0  0  0  0
   12.1241   -2.6649    1.3340 C   0  0  0  0  0  0  0  0  0  0  0  0
   12.6780   -3.8935    1.1904 F   0  0  0  0  0  0  0  0  0  0  0  0
   10.8406   -2.4162    0.8274 C   0  0  0  0  0  0  0  0  0  0  0  0
   10.1512    1.1195    1.6264 C   0  0  0  0  0  0  0  0  0  0  0  0
    8.8328    0.7136    1.0457 C   0  0  0  0  0  0  0  0  0  0  0  0
    7.6786    1.4070    1.0718 C   0  0  0  0  0  0  0  0  0  0  0  0
    6.4564    0.9989    0.3592 C   0  0  0  0  0  0  0  0  0  0  0  0
    4.9162    0.9862    1.0953 S   0  0  0  0  0  0  0  0  0  0  0  0
    6.3341    0.7415   -1.0262 C   0  0  0  0  0  0  0  0  0  0  0  0
    7.4434    0.7765   -2.0360 C   0  0  0  0  0  0  0  0  0  0  0  0
    5.0072    0.4871   -1.3635 C   0  0  0  0  0  0  0  0  0  0  0  0
    4.1192    0.5909   -0.3240 C   0  0  0  0  0  0  0  0  0  0  0  0
    2.8112    0.3794   -0.7237 C   0  0  0  0  0  0  0  0  0  0  0  0
    1.6304    0.2664   -0.0731 N   0  0  0  0  0  0  0  0  0  0  0  0
    1.4820    0.1252    1.3747 C   0  0  0  0  0  0  0  0  0  0  0  0
    2.7172    0.0947   -2.0453 C   0  0  0  0  0  0  0  0  0  0  0  0
    4.2231    0.0883   -2.8301 S   0  0  0  0  0  0  0  0  0  0  0  0
    1.4117   -0.2292   -2.2924 C   0  0  0  0  0  0  0  0  0  0  0  0
    0.7429   -0.0574   -1.0680 C   0  0  0  0  0  0  0  0  0  0  0  0
   -0.6460   -0.3384   -1.0063 C   0  0  0  0  0  0  0  0  0  0  0  0
   -1.5827    0.0369   -0.0774 N   0  0  0  0  0  0  0  0  0  0  0  0
   -1.4654    1.0634    0.9567 C   0  0  0  0  0  0  0  0  0  0  0  0
   -2.7491   -0.4271   -0.5869 C   0  0  0  0  0  0  0  0  0  0  0  0
   -2.5925   -1.0075   -1.8036 C   0  0  0  0  0  0  0  0  0  0  0  0
   -4.0625   -1.2506   -2.6151 S   0  0  0  0  0  0  0  0  0  0  0  0
   -4.9282   -0.6116   -1.2895 C   0  0  0  0  0  0  0  0  0  0  0  0
   -4.0846   -0.1929   -0.2893 C   0  0  0  0  0  0  0  0  0  0  0  0
   -4.9471    0.6064    0.9073 S   0  0  0  0  0  0  0  0  0  0  0  0
   -6.4548    0.3653    0.1430 C   0  0  0  0  0  0  0  0  0  0  0  0
   -7.7037    0.9868    0.6145 C   0  0  0  0  0  0  0  0  0  0  0  0
   -8.8253    0.2938    0.8949 C   0  0  0  0  0  0  0  0  0  0  0  0
   -8.9689   -1.1627    0.7919 C   0  0  0  0  0  0  0  0  0  0  0  0
  -10.3765   -1.4887    0.8203 C   0  0  0  0  0  0  0  0  0  0  0  0
  -10.9688   -2.7451    0.6895 C   0  0  0  0  0  0  0  0  0  0  0  0
  -12.3647   -2.8361    0.7468 C   0  0  0  0  0  0  0  0  0  0  0  0
  -12.9699   -4.0429    0.6146 F   0  0  0  0  0  0  0  0  0  0  0  0
  -13.1397   -1.6786    0.9447 C   0  0  0  0  0  0  0  0  0  0  0  0
  -14.4903   -1.7746    1.0073 F   0  0  0  0  0  0  0  0  0  0  0  0
  -12.5232   -0.4214    1.0693 C   0  0  0  0  0  0  0  0  0  0  0  0
  -11.1207   -0.3331    1.0020 C   0  0  0  0  0  0  0  0  0  0  0  0
  -10.2025    0.8396    1.1381 C   0  0  0  0  0  0  0  0  0  0  0  0
  -10.5362    2.1087    1.4949 C   0  0  0  0  0  0  0  0  0  0  0  0
   -9.5545    3.0893    1.8807 C   0  0  0  0  0  0  0  0  0  0  0  0
   -8.7715    3.8802    2.1904 N   0  0  0  0  0  0  0  0  0  0  0  0
  -11.9000    2.5755    1.5402 C   0  0  0  0  0  0  0  0  0  0  0  0
  -12.9897    2.9696    1.5686 N   0  0  0  0  0  0  0  0  0  0  0  0
   -8.0336   -2.0035    0.7297 O   0  0  0  0  0  0  0  0  0  0  0  0
   -6.2715   -0.2900   -1.0944 C   0  0  0  0  0  0  0  0  0  0  0  0
   -7.3455   -0.5589   -2.1082 C   0  0  0  0  0  0  0  0  0  0  0  0
   -1.2651   -0.9262   -2.1226 C   0  0  0  0  0  0  0  0  0  0  0  0
   -0.5925   -1.1282   -3.3343 C   0  0  0  0  0  0  0  0  0  0  0  0
   -1.1691   -1.6270   -4.4553 N   0  0  0  0  0  0  0  0  0  0  0  0
    0.1313   -1.5848   -5.4814 S   0  0  0  0  0  0  0  0  0  0  0  0
    1.3992   -0.9612   -4.6155 N   0  0  0  0  0  0  0  0  0  0  0  0
    0.7834   -0.7608   -3.4245 C   0  0  0  0  0  0  0  0  0  0  0  0
   10.5806    2.3868    1.8716 C   0  0  0  0  0  0  0  0  0  0  0  0
   11.9357    2.6905    2.2502 C   0  0  0  0  0  0  0  0  0  0  0  0
   13.0242    2.9531    2.5439 N   0  0  0  0  0  0  0  0  0  0  0  0
    9.7565    3.5435    1.6379 C   0  0  0  0  0  0  0  0  0  0  0  0
    9.1022    4.4793    1.4529 N   0  0  0  0  0  0  0  0  0  0  0  0
   12.7992    0.3615    2.7286 H   0  0  0  0  0  0  0  0  0  0  0  0
   10.2815   -3.2008    0.3329 H   0  0  0  0  0  0  0  0  0  0  0  0
    7.5902    2.2903    1.6824 H   0  0  0  0  0  0  0  0  0  0  0  0
    8.3510    1.2647   -1.6269 H   0  0  0  0  0  0  0  0  0  0  0  0
    7.1194    1.3553   -2.9256 H   0  0  0  0  0  0  0  0  0  0  0  0
    7.6931   -0.2582   -2.3534 H   0  0  0  0  0  0  0  0  0  0  0  0
    0.6283   -0.5391    1.6171 H   0  0  0  0  0  0  0  0  0  0  0  0
    1.3572    1.1226    1.8429 H   0  0  0  0  0  0  0  0  0  0  0  0
    2.3881   -0.3517    1.8059 H   0  0  0  0  0  0  0  0  0  0  0  0
   -0.6029    1.7261    0.7544 H   0  0  0  0  0  0  0  0  0  0  0  0
   -2.3530    1.7246    0.9494 H   0  0  0  0  0  0  0  0  0  0  0  0
   -1.3815    0.5900    1.9562 H   0  0  0  0  0  0  0  0  0  0  0  0
   -7.6871    2.0612    0.6458 H   0  0  0  0  0  0  0  0  0  0  0  0
  -10.3664   -3.6317    0.5453 H   0  0  0  0  0  0  0  0  0  0  0  0
  -13.1544    0.4353    1.2112 H   0  0  0  0  0  0  0  0  0  0  0  0
   -7.6935   -1.6089   -2.0046 H   0  0  0  0  0  0  0  0  0  0  0  0
   -8.2102    0.1262   -1.9650 H   0  0  0  0  0  0  0  0  0  0  0  0
   -6.9489   -0.4056   -3.1364 H   0  0  0  0  0  0  0  0  0  0  0  0
  1  2  2  0
  2  3  1  0
  3  4  2  0
  4  5  1  0
  5  6  2  0
  6  7  1  0
  6  8  1  0
  8  9  1  0
  8 10  2  0
  4 11  1  0
 11 12  1  0
 12 13  2  0
 13 14  1  0
 14 15  1  0
 14 16  2  0
 16 17  1  0
 16 18  1  0
 18 19  2  0
 19 20  1  0
 20 21  1  0
 21 22  1  0
 20 23  2  0
 23 24  1  0
 23 25  1  0
 25 26  2  0
 26 27  1  0
 27 28  1  0
 28 29  1  0
 28 30  1  0
 30 31  2  0
 31 32  1  0
 32 33  1  0
 33 34  2  0
 34 35  1  0
 35 36  1  0
 36 37  1  0
 37 38  2  0
 38 39  1  0
 39 40  1  0
 40 41  1  0
 41 42  2  0
 42 43  1  0
 42 44  1  0
 44 45  1  0
 44 46  2  0
 40 47  2  0
 47 48  1  0
 48 49  2  0
 49 50  1  0
 50 51  3  0
 49 52  1  0
 52 53  3  0
 39 54  2  0
 36 55  2  0
 55 56  1  0
 27 57  2  0
 57 58  1  0
 58 59  2  0
 59 60  1  0
 60 61  1  0
 61 62  2  0
 11 63  2  0
 63 64  1  0
 64 65  3  0
 63 66  1  0
 66 67  3  0
 12  2  1  0
 10  3  1  0
 19 15  1  0
 24 18  1  0
 26 21  1  0
 62 25  1  0
 34 30  1  0
 57 31  1  0
 55 33  1  0
 48 38  1  0
 47 46  1  0
 62 58  1  0
  5 68  1  0
 10 69  1  0
 13 70  1  0
 17 71  1  0
 17 72  1  0
 17 73  1  0
 22 74  1  0
 22 75  1  0
 22 76  1  0
 29 77  1  0
 29 78  1  0
 29 79  1  0
 37 80  1  0
 41 81  1  0
 46 82  1  0
 56 83  1  0
 56 84  1  0
 56 85  1  0
M  END
$$$$
