85
XYZ coordinates from SMILES
O 8.076879 -1.415764 0.126486
C 8.977034 -0.684102 0.615834
C 10.297912 -1.140792 0.986394
C 10.984980 -0.119705 1.620877
C 12.255190 -0.375079 2.165123
C 12.825583 -1.650343 2.007848
F 14.055524 -1.906802 2.520320
C 12.124091 -2.664947 1.334044
F 12.678003 -3.893491 1.190411
C 10.840557 -2.416243 0.827390
C 10.151212 1.119465 1.626374
C 8.832784 0.713614 1.045741
C 7.678594 1.406971 1.071760
C 6.456392 0.998878 0.359166
S 4.916163 0.986212 1.095343
C 6.334143 0.741508 -1.026155
C 7.443430 0.776484 -2.035976
C 5.007177 0.487130 -1.363545
C 4.119228 0.590864 -0.323985
C 2.811155 0.379381 -0.723674
N 1.630374 0.266365 -0.073073
C 1.481989 0.125205 1.374703
C 2.717192 0.094742 -2.045309
S 4.223112 0.088268 -2.830093
C 1.411689 -0.229249 -2.292426
C 0.742855 -0.057427 -1.068021
C -0.645995 -0.338383 -1.006296
N -1.582681 0.036850 -0.077444
C -1.465361 1.063402 0.956715
C -2.749147 -0.427061 -0.586923
C -2.592546 -1.007458 -1.803621
S -4.062469 -1.250639 -2.615080
C -4.928164 -0.611588 -1.289510
C -4.084575 -0.192853 -0.289268
S -4.947088 0.606374 0.907307
C -6.454785 0.365342 0.143001
C -7.703724 0.986766 0.614498
C -8.825328 0.293763 0.894935
C -8.968885 -1.162693 0.791947
C -10.376529 -1.488693 0.820334
C -10.968788 -2.745117 0.689463
C -12.364651 -2.836139 0.746770
F -12.969913 -4.042883 0.614559
C -13.139685 -1.678566 0.944709
F -14.490327 -1.774555 1.007254
C -12.523160 -0.421380 1.069319
C -11.120687 -0.333062 1.002041
C -10.202469 0.839595 1.138077
C -10.536196 2.108687 1.494865
C -9.554498 3.089332 1.880690
N -8.771469 3.880210 2.190371
C -11.899999 2.575490 1.540207
N -12.989698 2.969638 1.568640
O -8.033601 -2.003456 0.729668
C -6.271461 -0.290005 -1.094382
C -7.345523 -0.558894 -2.108219
C -1.265096 -0.926209 -2.122647
C -0.592543 -1.128240 -3.334336
N -1.169081 -1.626967 -4.455338
S 0.131255 -1.584827 -5.481439
N 1.399224 -0.961249 -4.615537
C 0.783427 -0.760783 -3.424490
C 10.580571 2.386780 1.871598
C 11.935662 2.690483 2.250185
N 13.024209 2.953093 2.543862
C 9.756469 3.543514 1.637927
N 9.102201 4.479341 1.452851
H 12.799240 0.361461 2.728554
H 10.281491 -3.200818 0.332931
H 7.590200 2.290289 1.682421
H 8.350996 1.264704 -1.626851
H 7.119366 1.355327 -2.925576
H 7.693082 -0.258160 -2.353378
H 0.628259 -0.539095 1.617116
H 1.357165 1.122643 1.842876
H 2.388060 -0.351729 1.805892
H -0.602908 1.726057 0.754363
H -2.353042 1.724644 0.949439
H -1.381517 0.590001 1.956206
H -7.687071 2.061249 0.645754
H -10.366438 -3.631652 0.545301
H -13.154368 0.435251 1.211197
H -7.693493 -1.608931 -2.004644
H -8.210215 0.126248 -1.965003
H -6.948946 -0.405590 -3.136383
